36

C             0.03771           0.01597           0.76508
H            -0.91885          -0.47570           0.91248
C             0.09458           1.35324           0.12541
H            -0.83194           1.85661          -0.13671
C             1.40803           2.00896          -0.11498
C             2.68127           1.27903           0.21111
C             2.59719          -0.00477           0.96678
H             3.49191          -0.48032           1.35144
C             1.28480          -0.64495           1.21578
H             1.23853          -1.59537           1.73621
C             1.46594           3.41130          -0.60156
H             0.55407           3.93896          -0.86461
C             2.76414           4.12633          -0.65819
H             2.78764           5.17832          -0.92270
C             4.02494           3.40517          -0.35287
C             3.99907           1.92387          -0.10609
C             5.31092           4.14573          -0.26227
H             5.34453           5.21224          -0.45644
C             6.55421           3.43473           0.12101
H             7.47889           3.99261           0.24037
C             6.55531           1.95580           0.24051
C             5.30698           1.18575          -0.08124
C             7.80868           1.23073           0.56909
H             8.69139           1.77524           0.88883
C             7.87019          -0.24370           0.43500
H             8.78247          -0.76990           0.70191
C             6.71848          -0.98229          -0.14082
C             5.45376          -0.24886          -0.48963
C             4.44513          -0.92885          -1.35217
H             3.61298          -0.37741          -1.77917
C             4.57871          -2.37428          -1.65758
H             3.82168          -2.87271          -2.25388
C             5.76121          -3.13091          -1.17992
H             5.85465          -4.19001          -1.40131
C             6.83930          -2.43261          -0.44025
H             7.72759          -2.98117          -0.14509
