36

C     0.6532400000      3.2578600000     -0.2025100000
C    -0.6532400000      3.2578600000      0.2025100000
C     1.3725000000      2.0329600000     -0.3208100000
C    -1.3725000000      2.0329600000      0.3208100000
C     0.7224700000      0.7956700000     -0.0503900000
C    -0.7224700000      0.7956700000      0.0503900000
C     2.7603900000      2.0539300000     -0.6742700000
C     3.5088700000      0.9139200000     -0.6713600000
C     2.9552300000     -0.3096200000     -0.1774800000
C     1.5747200000     -0.3611100000      0.1970900000
H     1.1834300000      4.1957400000     -0.3846000000
H    -1.1834300000      4.1957400000      0.3846000000
H     3.2062800000      3.0124200000     -0.9513900000
H     4.5600200000      0.9329600000     -0.9693300000
C     3.7830200000     -1.4431000000      0.0283100000
C     1.1374300000     -1.5075300000      0.9121100000
C     1.9736900000     -2.5843500000      1.1380600000
C     3.3018500000     -2.5715900000      0.6611800000
H     4.8257500000     -1.3912300000     -0.2954800000
H     0.1246500000     -1.5327900000      1.3084700000
H     1.6035900000     -3.4456800000      1.6989800000
H     3.9527400000     -3.4335300000      0.8251300000
C    -3.5088700000      0.9139200000      0.6713600000
C    -2.7603900000      2.0539300000      0.6742700000
C    -2.9552300000     -0.3096200000      0.1774800000
C    -1.5747200000     -0.3611100000     -0.1970900000
C    -3.7830200000     -1.4431000000     -0.0283100000
C    -3.3018500000     -2.5715900000     -0.6611800000
C    -1.9736900000     -2.5843500000     -1.1380600000
C    -1.1374300000     -1.5075300000     -0.9121100000
H    -4.5600200000      0.9329500000      0.9693300000
H    -3.2062800000      3.0124200000      0.9513900000
H    -4.8257500000     -1.3912300000      0.2954800000
H    -3.9527400000     -3.4335300000     -0.8251300000
H    -1.6035900000     -3.4456800000     -1.6989800000
H    -0.1246500000     -1.5327900000     -1.3084700000
